data/nesta_case73_ieee_rts__sad.m
%%%%%%%%%%%%%%%%%%%%%%%%%%%%%%%%%%%%%%%%%%%%%%%%%%%%%%%%%%%%%%%%%%%%%%%%%%%
%%%%                                                                  %%%%%
%%%%      NICTA Energy System Test Case Archive (NESTA) - v0.6.0      %%%%%
%%%%           Optimal Power Flow - Small Angle Difference            %%%%%
%%%%                       02 - January - 2016                        %%%%%
%%%%                                                                  %%%%%
%%%%%%%%%%%%%%%%%%%%%%%%%%%%%%%%%%%%%%%%%%%%%%%%%%%%%%%%%%%%%%%%%%%%%%%%%%%
function mpc = nesta_case73_ieee_rts__sad
mpc.version = '2';
mpc.baseMVA = 100.0;

%% area data
%	area	refbus
mpc.areas = [
	1	 101;
	2	 201;
	3	 301;
];

%% bus data
%	bus_i	type	Pd	Qd	Gs	Bs	area	Vm	Va	baseKV	zone	Vmax	Vmin
mpc.bus = [
	101	 2	 108.0	 22.0	 0.0	 0.0	 1	    1.03143	   -8.01425	 138.0	 1	    1.05000	    0.95000;
	102	 2	 97.0	 20.0	 0.0	 0.0	 1	    1.02860	   -7.99769	 138.0	 1	    1.05000	    0.95000;
	103	 1	 180.0	 37.0	 0.0	 0.0	 1	    1.01001	   -9.92758	 138.0	 1	    1.05000	    0.95000;
	104	 1	 74.0	 15.0	 0.0	 0.0	 1	    1.01031	  -11.12025	 138.0	 1	    1.05000	    0.95000;
	105	 1	 71.0	 14.0	 0.0	 0.0	 1	    1.02722	  -11.06187	 138.0	 1	    1.05000	    0.95000;
	106	 1	 136.0	 28.0	 0.0	 -100.0	 1	    1.02756	  -13.64293	 138.0	 1	    1.05000	    0.95000;
	107	 2	 125.0	 25.0	 0.0	 0.0	 1	    1.05000	   -5.07463	 138.0	 1	    1.05000	    0.95000;
	108	 1	 171.0	 35.0	 0.0	 0.0	 1	    1.01729	  -10.37403	 138.0	 1	    1.05000	    0.95000;
	109	 1	 175.0	 36.0	 0.0	 0.0	 1	    1.02890	   -9.60936	 138.0	 1	    1.05000	    0.95000;
	110	 1	 195.0	 40.0	 0.0	 0.0	 1	    1.05000	  -10.98297	 138.0	 1	    1.05000	    0.95000;
	111	 1	 0.0	 0.0	 0.0	 0.0	 1	    1.03390	   -5.19386	 230.0	 1	    1.05000	    0.95000;
	112	 1	 0.0	 0.0	 0.0	 0.0	 1	    1.02788	   -3.67449	 230.0	 1	    1.05000	    0.95000;
	113	 3	 265.0	 54.0	 0.0	 0.0	 1	    1.05000	    0.00000	 230.0	 1	    1.05000	    0.95000;
	114	 2	 194.0	 39.0	 0.0	 0.0	 1	    1.05000	   -4.85994	 230.0	 1	    1.05000	    0.95000;
	115	 2	 317.0	 64.0	 0.0	 0.0	 1	    1.04534	    1.59712	 230.0	 1	    1.05000	    0.95000;
	116	 2	 100.0	 20.0	 0.0	 0.0	 1	    1.04885	    1.79611	 230.0	 1	    1.05000	    0.95000;
	117	 1	 0.0	 0.0	 0.0	 0.0	 1	    1.04914	    5.25849	 230.0	 1	    1.05000	    0.95000;
	118	 2	 333.0	 68.0	 0.0	 0.0	 1	    1.05000	    6.16881	 230.0	 1	    1.05000	    0.95000;
	119	 1	 181.0	 37.0	 0.0	 0.0	 1	    1.04145	    1.03797	 230.0	 1	    1.05000	    0.95000;
	120	 1	 128.0	 26.0	 0.0	 0.0	 1	    1.04460	    2.24789	 230.0	 1	    1.05000	    0.95000;
	121	 2	 0.0	 0.0	 0.0	 0.0	 1	    1.05000	    6.55607	 230.0	 1	    1.05000	    0.95000;
	122	 2	 0.0	 0.0	 0.0	 0.0	 1	    1.05000	   12.55878	 230.0	 1	    1.05000	    0.95000;
	123	 2	 0.0	 0.0	 0.0	 0.0	 1	    1.05000	    3.63398	 230.0	 1	    1.05000	    0.95000;
	124	 1	 0.0	 0.0	 0.0	 0.0	 1	    1.01768	   -2.61910	 230.0	 1	    1.05000	    0.95000;
	201	 2	 108.0	 22.0	 0.0	 0.0	 2	    1.03583	   -3.40417	 138.0	 2	    1.05000	    0.95000;
	202	 2	 97.0	 20.0	 0.0	 0.0	 2	    1.03539	   -3.41632	 138.0	 2	    1.05000	    0.95000;
	203	 1	 180.0	 37.0	 0.0	 0.0	 2	    1.02280	   -5.41325	 138.0	 2	    1.05000	    0.95000;
	204	 1	 74.0	 15.0	 0.0	 0.0	 2	    1.01462	   -6.45723	 138.0	 2	    1.05000	    0.95000;
	205	 1	 71.0	 14.0	 0.0	 0.0	 2	    1.02951	   -6.39673	 138.0	 2	    1.05000	    0.95000;
	206	 1	 136.0	 28.0	 0.0	 -100.0	 2	    1.02929	   -8.95396	 138.0	 2	    1.05000	    0.95000;
	207	 2	 125.0	 25.0	 0.0	 0.0	 2	    1.03372	    0.64698	 138.0	 2	    1.05000	    0.95000;
	208	 1	 171.0	 35.0	 0.0	 0.0	 2	    1.00760	   -5.16814	 138.0	 2	    1.05000	    0.95000;
	209	 1	 175.0	 36.0	 0.0	 0.0	 2	    1.03098	   -4.91604	 138.0	 2	    1.05000	    0.95000;
	210	 1	 195.0	 40.0	 0.0	 0.0	 2	    1.05000	   -6.28151	 138.0	 2	    1.05000	    0.95000;
	211	 1	 0.0	 0.0	 0.0	 0.0	 2	    1.03435	   -0.67048	 230.0	 2	    1.05000	    0.95000;
	212	 1	 0.0	 0.0	 0.0	 0.0	 2	    1.02830	    1.02697	 230.0	 2	    1.05000	    0.95000;
	213	 2	 265.0	 54.0	 0.0	 0.0	 2	    1.05000	    4.71607	 230.0	 2	    1.05000	    0.95000;
	214	 2	 194.0	 39.0	 0.0	 0.0	 2	    1.05000	   -0.66394	 230.0	 2	    1.05000	    0.95000;
	215	 2	 317.0	 64.0	 0.0	 0.0	 2	    1.04800	    5.32524	 230.0	 2	    1.05000	    0.95000;
	216	 2	 100.0	 20.0	 0.0	 0.0	 2	    1.04905	    5.52830	 230.0	 2	    1.05000	    0.95000;
	217	 1	 0.0	 0.0	 0.0	 0.0	 2	    1.04478	    8.34295	 230.0	 2	    1.05000	    0.95000;
	218	 2	 333.0	 68.0	 0.0	 0.0	 2	    1.04096	    9.82055	 230.0	 2	    1.05000	    0.95000;
	219	 1	 181.0	 37.0	 0.0	 0.0	 2	    1.04143	    5.18258	 230.0	 2	    1.05000	    0.95000;
	220	 1	 128.0	 26.0	 0.0	 0.0	 2	    1.04445	    6.75259	 230.0	 2	    1.05000	    0.95000;
	221	 2	 0.0	 0.0	 0.0	 0.0	 2	    1.05000	   10.63226	 230.0	 2	    1.05000	    0.95000;
	222	 2	 0.0	 0.0	 0.0	 0.0	 2	    1.05000	   15.65143	 230.0	 2	    1.05000	    0.95000;
	223	 2	 0.0	 0.0	 0.0	 0.0	 2	    1.05000	    8.33545	 230.0	 2	    1.05000	    0.95000;
	224	 1	 0.0	 0.0	 0.0	 0.0	 2	    1.02509	    1.35963	 230.0	 2	    1.05000	    0.95000;
	301	 2	 108.0	 22.0	 0.0	 0.0	 3	    1.03954	  -12.18653	 138.0	 3	    1.05000	    0.95000;
	302	 2	 97.0	 20.0	 0.0	 0.0	 3	    1.03522	  -12.16693	 138.0	 3	    1.05000	    0.95000;
	303	 1	 180.0	 37.0	 0.0	 0.0	 3	    1.01112	  -13.89560	 138.0	 3	    1.05000	    0.95000;
	304	 1	 74.0	 15.0	 0.0	 0.0	 3	    1.01288	  -15.12551	 138.0	 3	    1.05000	    0.95000;
	305	 1	 71.0	 14.0	 0.0	 0.0	 3	    1.03147	  -15.08432	 138.0	 3	    1.05000	    0.95000;
	306	 1	 136.0	 28.0	 0.0	 -100.0	 3	    1.02928	  -17.59525	 138.0	 3	    1.05000	    0.95000;
	307	 2	 125.0	 25.0	 0.0	 0.0	 3	    1.03186	   -7.92509	 138.0	 3	    1.05000	    0.95000;
	308	 1	 171.0	 35.0	 0.0	 0.0	 3	    1.00581	  -13.76302	 138.0	 3	    1.05000	    0.95000;
	309	 1	 175.0	 36.0	 0.0	 0.0	 3	    1.02799	  -13.50479	 138.0	 3	    1.05000	    0.95000;
	310	 1	 195.0	 40.0	 0.0	 0.0	 3	    1.05000	  -14.88871	 138.0	 3	    1.05000	    0.95000;
	311	 1	 0.0	 0.0	 0.0	 0.0	 3	    1.03380	   -9.16755	 230.0	 3	    1.05000	    0.95000;
	312	 1	 0.0	 0.0	 0.0	 0.0	 3	    1.02770	   -7.58023	 230.0	 3	    1.05000	    0.95000;
	313	 2	 265.0	 54.0	 0.0	 0.0	 3	    1.05000	   -3.91577	 230.0	 3	    1.05000	    0.95000;
	314	 2	 194.0	 39.0	 0.0	 0.0	 3	    1.05000	   -8.95768	 230.0	 3	    1.05000	    0.95000;
	315	 2	 317.0	 64.0	 0.0	 0.0	 3	    1.04407	   -2.35543	 230.0	 3	    1.05000	    0.95000;
	316	 2	 100.0	 20.0	 0.0	 0.0	 3	    1.04693	   -2.45323	 230.0	 3	    1.05000	    0.95000;
	317	 1	 0.0	 0.0	 0.0	 0.0	 3	    1.04807	    1.69945	 230.0	 3	    1.05000	    0.95000;
	318	 2	 333.0	 68.0	 0.0	 0.0	 3	    1.05000	    2.97503	 230.0	 3	    1.05000	    0.95000;
	319	 1	 181.0	 37.0	 0.0	 0.0	 3	    1.04029	   -3.06727	 230.0	 3	    1.05000	    0.95000;
	320	 1	 128.0	 26.0	 0.0	 0.0	 3	    1.04414	   -1.72781	 230.0	 3	    1.05000	    0.95000;
	321	 2	 0.0	 0.0	 0.0	 0.0	 3	    1.05000	    3.04241	 230.0	 3	    1.05000	    0.95000;
	322	 2	 0.0	 0.0	 0.0	 0.0	 3	    1.05000	    9.00793	 230.0	 3	    1.05000	    0.95000;
	323	 2	 0.0	 0.0	 0.0	 0.0	 3	    1.05000	   -0.27175	 230.0	 3	    1.05000	    0.95000;
	324	 1	 0.0	 0.0	 0.0	 0.0	 3	    1.01729	   -6.58712	 230.0	 3	    1.05000	    0.95000;
	325	 1	 0.0	 0.0	 0.0	 0.0	 3	    1.04912	    0.29588	 230.0	 3	    1.05000	    0.95000;
];

%% generator data
%	bus	Pg	Qg	Qmax	Qmin	Vg	mBase	status	Pmax	Pmin	Pc1	Pc2	Qc1min	Qc1max	Qc2min	Qc2max	ramp_agc	ramp_10	ramp_30	ramp_q	apf
mpc.gen = [
	101	 20.0	 4.919	 10.0	 0.0	 1.03143	 100.0	 1	 20.0	 16.0	 0.0	 0.0	 0.0	 0.0	 0.0	 0.0	 0.0	 0.0	 0.0	 0.0	 0.0;
	101	 20.0	 4.919	 10.0	 0.0	 1.03143	 100.0	 1	 20.0	 16.0	 0.0	 0.0	 0.0	 0.0	 0.0	 0.0	 0.0	 0.0	 0.0	 0.0	 0.0;
	101	 76.0	 0.072	 30.0	 -25.0	 1.03143	 100.0	 1	 76.0	 15.2	 0.0	 0.0	 0.0	 0.0	 0.0	 0.0	 0.0	 0.0	 0.0	 0.0	 0.0;
	101	 76.0	 0.072	 30.0	 -25.0	 1.03143	 100.0	 1	 76.0	 15.2	 0.0	 0.0	 0.0	 0.0	 0.0	 0.0	 0.0	 0.0	 0.0	 0.0	 0.0;
	102	 20.0	 2.884	 10.0	 0.0	 1.0286	 100.0	 1	 20.0	 16.0	 0.0	 0.0	 0.0	 0.0	 0.0	 0.0	 0.0	 0.0	 0.0	 0.0	 0.0;
	102	 20.0	 2.884	 10.0	 0.0	 1.0286	 100.0	 1	 20.0	 16.0	 0.0	 0.0	 0.0	 0.0	 0.0	 0.0	 0.0	 0.0	 0.0	 0.0	 0.0;
	102	 76.0	 -20.51	 30.0	 -25.0	 1.0286	 100.0	 1	 76.0	 15.2	 0.0	 0.0	 0.0	 0.0	 0.0	 0.0	 0.0	 0.0	 0.0	 0.0	 0.0;
	102	 76.0	 -20.51	 30.0	 -25.0	 1.0286	 100.0	 1	 76.0	 15.2	 0.0	 0.0	 0.0	 0.0	 0.0	 0.0	 0.0	 0.0	 0.0	 0.0	 0.0;
	107	 100.0	 19.096	 60.0	 0.0	 1.05	 100.0	 1	 100.0	 25.0	 0.0	 0.0	 0.0	 0.0	 0.0	 0.0	 0.0	 0.0	 0.0	 0.0	 0.0;
	107	 100.0	 19.096	 60.0	 0.0	 1.05	 100.0	 1	 100.0	 25.0	 0.0	 0.0	 0.0	 0.0	 0.0	 0.0	 0.0	 0.0	 0.0	 0.0	 0.0;
	107	 100.0	 19.096	 60.0	 0.0	 1.05	 100.0	 1	 100.0	 25.0	 0.0	 0.0	 0.0	 0.0	 0.0	 0.0	 0.0	 0.0	 0.0	 0.0	 0.0;
	113	 136.38	 38.877	 80.0	 0.0	 1.05	 100.0	 1	 197.0	 69.0	 0.0	 0.0	 0.0	 0.0	 0.0	 0.0	 0.0	 0.0	 0.0	 0.0	 0.0;
	113	 136.38	 38.877	 80.0	 0.0	 1.05	 100.0	 1	 197.0	 69.0	 0.0	 0.0	 0.0	 0.0	 0.0	 0.0	 0.0	 0.0	 0.0	 0.0	 0.0;
	113	 136.38	 38.877	 80.0	 0.0	 1.05	 100.0	 1	 197.0	 69.0	 0.0	 0.0	 0.0	 0.0	 0.0	 0.0	 0.0	 0.0	 0.0	 0.0	 0.0;
	114	 0.0	 100.313	 200.0	 -50.0	 1.05	 100.0	 1	 0.0	 0.0	 0.0	 0.0	 0.0	 0.0	 0.0	 0.0	 0.0	 0.0	 0.0	 0.0	 0.0;
	115	 2.4	 6.0	 6.0	 0.0	 1.04534	 100.0	 1	 12.0	 2.4	 0.0	 0.0	 0.0	 0.0	 0.0	 0.0	 0.0	 0.0	 0.0	 0.0	 0.0;
	115	 2.4	 6.0	 6.0	 0.0	 1.04534	 100.0	 1	 12.0	 2.4	 0.0	 0.0	 0.0	 0.0	 0.0	 0.0	 0.0	 0.0	 0.0	 0.0	 0.0;
	115	 2.4	 6.0	 6.0	 0.0	 1.04534	 100.0	 1	 12.0	 2.4	 0.0	 0.0	 0.0	 0.0	 0.0	 0.0	 0.0	 0.0	 0.0	 0.0	 0.0;
	115	 2.4	 6.0	 6.0	 0.0	 1.04534	 100.0	 1	 12.0	 2.4	 0.0	 0.0	 0.0	 0.0	 0.0	 0.0	 0.0	 0.0	 0.0	 0.0	 0.0;
	115	 2.4	 6.0	 6.0	 0.0	 1.04534	 100.0	 1	 12.0	 2.4	 0.0	 0.0	 0.0	 0.0	 0.0	 0.0	 0.0	 0.0	 0.0	 0.0	 0.0;
	115	 54.3	 80.0	 80.0	 -50.0	 1.04534	 100.0	 1	 155.0	 54.3	 0.0	 0.0	 0.0	 0.0	 0.0	 0.0	 0.0	 0.0	 0.0	 0.0	 0.0;
	116	 155.0	 80.0	 80.0	 -50.0	 1.04885	 100.0	 1	 155.0	 54.3	 0.0	 0.0	 0.0	 0.0	 0.0	 0.0	 0.0	 0.0	 0.0	 0.0	 0.0;
	118	 400.0	 56.765	 200.0	 -50.0	 1.05	 100.0	 1	 400.0	 100.0	 0.0	 0.0	 0.0	 0.0	 0.0	 0.0	 0.0	 0.0	 0.0	 0.0	 0.0;
	121	 400.0	 -29.996	 200.0	 -50.0	 1.05	 100.0	 1	 400.0	 100.0	 0.0	 0.0	 0.0	 0.0	 0.0	 0.0	 0.0	 0.0	 0.0	 0.0	 0.0;
	122	 50.0	 -6.933	 16.0	 -10.0	 1.05	 100.0	 1	 50.0	 10.0	 0.0	 0.0	 0.0	 0.0	 0.0	 0.0	 0.0	 0.0	 0.0	 0.0	 0.0;
	122	 50.0	 -6.933	 16.0	 -10.0	 1.05	 100.0	 1	 50.0	 10.0	 0.0	 0.0	 0.0	 0.0	 0.0	 0.0	 0.0	 0.0	 0.0	 0.0	 0.0;
	122	 50.0	 -6.933	 16.0	 -10.0	 1.05	 100.0	 1	 50.0	 10.0	 0.0	 0.0	 0.0	 0.0	 0.0	 0.0	 0.0	 0.0	 0.0	 0.0	 0.0;
	122	 50.0	 -6.933	 16.0	 -10.0	 1.05	 100.0	 1	 50.0	 10.0	 0.0	 0.0	 0.0	 0.0	 0.0	 0.0	 0.0	 0.0	 0.0	 0.0	 0.0;
	122	 50.0	 -6.933	 16.0	 -10.0	 1.05	 100.0	 1	 50.0	 10.0	 0.0	 0.0	 0.0	 0.0	 0.0	 0.0	 0.0	 0.0	 0.0	 0.0	 0.0;
	122	 50.0	 -6.933	 16.0	 -10.0	 1.05	 100.0	 1	 50.0	 10.0	 0.0	 0.0	 0.0	 0.0	 0.0	 0.0	 0.0	 0.0	 0.0	 0.0	 0.0;
	123	 79.363	 -3.885	 80.0	 -50.0	 1.05	 100.0	 1	 155.0	 54.3	 0.0	 0.0	 0.0	 0.0	 0.0	 0.0	 0.0	 0.0	 0.0	 0.0	 0.0;
	123	 79.363	 -3.885	 80.0	 -50.0	 1.05	 100.0	 1	 155.0	 54.3	 0.0	 0.0	 0.0	 0.0	 0.0	 0.0	 0.0	 0.0	 0.0	 0.0	 0.0;
	123	 190.286	 30.212	 150.0	 -25.0	 1.05	 100.0	 1	 350.0	 140.0	 0.0	 0.0	 0.0	 0.0	 0.0	 0.0	 0.0	 0.0	 0.0	 0.0	 0.0;
	201	 20.0	 4.531	 10.0	 0.0	 1.03583	 100.0	 1	 20.0	 16.0	 0.0	 0.0	 0.0	 0.0	 0.0	 0.0	 0.0	 0.0	 0.0	 0.0	 0.0;
	201	 20.0	 4.531	 10.0	 0.0	 1.03583	 100.0	 1	 20.0	 16.0	 0.0	 0.0	 0.0	 0.0	 0.0	 0.0	 0.0	 0.0	 0.0	 0.0	 0.0;
	201	 76.0	 -9.21	 30.0	 -25.0	 1.03583	 100.0	 1	 76.0	 15.2	 0.0	 0.0	 0.0	 0.0	 0.0	 0.0	 0.0	 0.0	 0.0	 0.0	 0.0;
	201	 76.0	 -9.21	 30.0	 -25.0	 1.03583	 100.0	 1	 76.0	 15.2	 0.0	 0.0	 0.0	 0.0	 0.0	 0.0	 0.0	 0.0	 0.0	 0.0	 0.0;
	202	 19.945	 4.414	 10.0	 0.0	 1.03539	 100.0	 1	 20.0	 16.0	 0.0	 0.0	 0.0	 0.0	 0.0	 0.0	 0.0	 0.0	 0.0	 0.0	 0.0;
	202	 19.945	 4.414	 10.0	 0.0	 1.03539	 100.0	 1	 20.0	 16.0	 0.0	 0.0	 0.0	 0.0	 0.0	 0.0	 0.0	 0.0	 0.0	 0.0	 0.0;
	202	 76.0	 -11.092	 30.0	 -25.0	 1.03539	 100.0	 1	 76.0	 15.2	 0.0	 0.0	 0.0	 0.0	 0.0	 0.0	 0.0	 0.0	 0.0	 0.0	 0.0;
	202	 76.0	 -11.092	 30.0	 -25.0	 1.03539	 100.0	 1	 76.0	 15.2	 0.0	 0.0	 0.0	 0.0	 0.0	 0.0	 0.0	 0.0	 0.0	 0.0	 0.0;
	207	 99.962	 10.428	 60.0	 0.0	 1.03372	 100.0	 1	 100.0	 25.0	 0.0	 0.0	 0.0	 0.0	 0.0	 0.0	 0.0	 0.0	 0.0	 0.0	 0.0;
	207	 99.962	 10.428	 60.0	 0.0	 1.03372	 100.0	 1	 100.0	 25.0	 0.0	 0.0	 0.0	 0.0	 0.0	 0.0	 0.0	 0.0	 0.0	 0.0	 0.0;
	207	 99.962	 10.428	 60.0	 0.0	 1.03372	 100.0	 1	 100.0	 25.0	 0.0	 0.0	 0.0	 0.0	 0.0	 0.0	 0.0	 0.0	 0.0	 0.0	 0.0;
	213	 183.359	 32.107	 80.0	 0.0	 1.05	 100.0	 1	 197.0	 69.0	 0.0	 0.0	 0.0	 0.0	 0.0	 0.0	 0.0	 0.0	 0.0	 0.0	 0.0;
	213	 183.359	 32.107	 80.0	 0.0	 1.05	 100.0	 1	 197.0	 69.0	 0.0	 0.0	 0.0	 0.0	 0.0	 0.0	 0.0	 0.0	 0.0	 0.0	 0.0;
	213	 183.359	 32.107	 80.0	 0.0	 1.05	 100.0	 1	 197.0	 69.0	 0.0	 0.0	 0.0	 0.0	 0.0	 0.0	 0.0	 0.0	 0.0	 0.0	 0.0;
	214	 0.0	 97.615	 200.0	 -50.0	 1.05	 100.0	 1	 0.0	 0.0	 0.0	 0.0	 0.0	 0.0	 0.0	 0.0	 0.0	 0.0	 0.0	 0.0	 0.0;
	215	 2.4	 6.0	 6.0	 0.0	 1.048	 100.0	 1	 12.0	 2.4	 0.0	 0.0	 0.0	 0.0	 0.0	 0.0	 0.0	 0.0	 0.0	 0.0	 0.0;
	215	 2.4	 6.0	 6.0	 0.0	 1.048	 100.0	 1	 12.0	 2.4	 0.0	 0.0	 0.0	 0.0	 0.0	 0.0	 0.0	 0.0	 0.0	 0.0	 0.0;
	215	 2.4	 6.0	 6.0	 0.0	 1.048	 100.0	 1	 12.0	 2.4	 0.0	 0.0	 0.0	 0.0	 0.0	 0.0	 0.0	 0.0	 0.0	 0.0	 0.0;
	215	 2.4	 6.0	 6.0	 0.0	 1.048	 100.0	 1	 12.0	 2.4	 0.0	 0.0	 0.0	 0.0	 0.0	 0.0	 0.0	 0.0	 0.0	 0.0	 0.0;
	215	 2.4	 6.0	 6.0	 0.0	 1.048	 100.0	 1	 12.0	 2.4	 0.0	 0.0	 0.0	 0.0	 0.0	 0.0	 0.0	 0.0	 0.0	 0.0	 0.0;
	215	 155.0	 80.0	 80.0	 -50.0	 1.048	 100.0	 1	 155.0	 54.3	 0.0	 0.0	 0.0	 0.0	 0.0	 0.0	 0.0	 0.0	 0.0	 0.0	 0.0;
	216	 155.0	 80.0	 80.0	 -50.0	 1.04905	 100.0	 1	 155.0	 54.3	 0.0	 0.0	 0.0	 0.0	 0.0	 0.0	 0.0	 0.0	 0.0	 0.0	 0.0;
	218	 400.0	 -50.0	 200.0	 -50.0	 1.04096	 100.0	 1	 400.0	 100.0	 0.0	 0.0	 0.0	 0.0	 0.0	 0.0	 0.0	 0.0	 0.0	 0.0	 0.0;
	221	 400.0	 35.951	 200.0	 -50.0	 1.05	 100.0	 1	 400.0	 100.0	 0.0	 0.0	 0.0	 0.0	 0.0	 0.0	 0.0	 0.0	 0.0	 0.0	 0.0;
	222	 45.433	 -6.048	 16.0	 -10.0	 1.05	 100.0	 1	 50.0	 10.0	 0.0	 0.0	 0.0	 0.0	 0.0	 0.0	 0.0	 0.0	 0.0	 0.0	 0.0;
	222	 45.433	 -6.048	 16.0	 -10.0	 1.05	 100.0	 1	 50.0	 10.0	 0.0	 0.0	 0.0	 0.0	 0.0	 0.0	 0.0	 0.0	 0.0	 0.0	 0.0;
	222	 45.433	 -6.048	 16.0	 -10.0	 1.05	 100.0	 1	 50.0	 10.0	 0.0	 0.0	 0.0	 0.0	 0.0	 0.0	 0.0	 0.0	 0.0	 0.0	 0.0;
	222	 45.433	 -6.048	 16.0	 -10.0	 1.05	 100.0	 1	 50.0	 10.0	 0.0	 0.0	 0.0	 0.0	 0.0	 0.0	 0.0	 0.0	 0.0	 0.0	 0.0;
	222	 45.433	 -6.048	 16.0	 -10.0	 1.05	 100.0	 1	 50.0	 10.0	 0.0	 0.0	 0.0	 0.0	 0.0	 0.0	 0.0	 0.0	 0.0	 0.0	 0.0;
	222	 45.433	 -6.048	 16.0	 -10.0	 1.05	 100.0	 1	 50.0	 10.0	 0.0	 0.0	 0.0	 0.0	 0.0	 0.0	 0.0	 0.0	 0.0	 0.0	 0.0;
	223	 146.724	 -16.229	 80.0	 -50.0	 1.05	 100.0	 1	 155.0	 54.3	 0.0	 0.0	 0.0	 0.0	 0.0	 0.0	 0.0	 0.0	 0.0	 0.0	 0.0;
	223	 146.724	 -16.229	 80.0	 -50.0	 1.05	 100.0	 1	 155.0	 54.3	 0.0	 0.0	 0.0	 0.0	 0.0	 0.0	 0.0	 0.0	 0.0	 0.0	 0.0;
	223	 305.081	 12.73	 150.0	 -25.0	 1.05	 100.0	 1	 350.0	 140.0	 0.0	 0.0	 0.0	 0.0	 0.0	 0.0	 0.0	 0.0	 0.0	 0.0	 0.0;
	301	 20.0	 5.237	 10.0	 0.0	 1.03954	 100.0	 1	 20.0	 16.0	 0.0	 0.0	 0.0	 0.0	 0.0	 0.0	 0.0	 0.0	 0.0	 0.0	 0.0;
	301	 20.0	 5.237	 10.0	 0.0	 1.03954	 100.0	 1	 20.0	 16.0	 0.0	 0.0	 0.0	 0.0	 0.0	 0.0	 0.0	 0.0	 0.0	 0.0	 0.0;
	301	 76.0	 9.249	 30.0	 -25.0	 1.03954	 100.0	 1	 76.0	 15.2	 0.0	 0.0	 0.0	 0.0	 0.0	 0.0	 0.0	 0.0	 0.0	 0.0	 0.0;
	301	 76.0	 9.249	 30.0	 -25.0	 1.03954	 100.0	 1	 76.0	 15.2	 0.0	 0.0	 0.0	 0.0	 0.0	 0.0	 0.0	 0.0	 0.0	 0.0	 0.0;
	302	 18.068	 2.051	 10.0	 0.0	 1.03522	 100.0	 1	 20.0	 16.0	 0.0	 0.0	 0.0	 0.0	 0.0	 0.0	 0.0	 0.0	 0.0	 0.0	 0.0;
	302	 18.068	 2.051	 10.0	 0.0	 1.03522	 100.0	 1	 20.0	 16.0	 0.0	 0.0	 0.0	 0.0	 0.0	 0.0	 0.0	 0.0	 0.0	 0.0	 0.0;
	302	 76.0	 -22.13	 30.0	 -25.0	 1.03522	 100.0	 1	 76.0	 15.2	 0.0	 0.0	 0.0	 0.0	 0.0	 0.0	 0.0	 0.0	 0.0	 0.0	 0.0;
	302	 76.0	 -22.13	 30.0	 -25.0	 1.03522	 100.0	 1	 76.0	 15.2	 0.0	 0.0	 0.0	 0.0	 0.0	 0.0	 0.0	 0.0	 0.0	 0.0	 0.0;
	307	 99.965	 10.365	 60.0	 0.0	 1.03186	 100.0	 1	 100.0	 25.0	 0.0	 0.0	 0.0	 0.0	 0.0	 0.0	 0.0	 0.0	 0.0	 0.0	 0.0;
	307	 99.965	 10.365	 60.0	 0.0	 1.03186	 100.0	 1	 100.0	 25.0	 0.0	 0.0	 0.0	 0.0	 0.0	 0.0	 0.0	 0.0	 0.0	 0.0	 0.0;
	307	 99.965	 10.365	 60.0	 0.0	 1.03186	 100.0	 1	 100.0	 25.0	 0.0	 0.0	 0.0	 0.0	 0.0	 0.0	 0.0	 0.0	 0.0	 0.0	 0.0;
	313	 181.142	 33.039	 80.0	 0.0	 1.05	 100.0	 1	 197.0	 69.0	 0.0	 0.0	 0.0	 0.0	 0.0	 0.0	 0.0	 0.0	 0.0	 0.0	 0.0;
	313	 181.142	 33.039	 80.0	 0.0	 1.05	 100.0	 1	 197.0	 69.0	 0.0	 0.0	 0.0	 0.0	 0.0	 0.0	 0.0	 0.0	 0.0	 0.0	 0.0;
	313	 181.142	 33.039	 80.0	 0.0	 1.05	 100.0	 1	 197.0	 69.0	 0.0	 0.0	 0.0	 0.0	 0.0	 0.0	 0.0	 0.0	 0.0	 0.0	 0.0;
	314	 0.0	 103.547	 200.0	 -50.0	 1.05	 100.0	 1	 0.0	 0.0	 0.0	 0.0	 0.0	 0.0	 0.0	 0.0	 0.0	 0.0	 0.0	 0.0	 0.0;
	315	 2.4	 6.0	 6.0	 0.0	 1.04407	 100.0	 1	 12.0	 2.4	 0.0	 0.0	 0.0	 0.0	 0.0	 0.0	 0.0	 0.0	 0.0	 0.0	 0.0;
	315	 2.4	 6.0	 6.0	 0.0	 1.04407	 100.0	 1	 12.0	 2.4	 0.0	 0.0	 0.0	 0.0	 0.0	 0.0	 0.0	 0.0	 0.0	 0.0	 0.0;
	315	 2.4	 6.0	 6.0	 0.0	 1.04407	 100.0	 1	 12.0	 2.4	 0.0	 0.0	 0.0	 0.0	 0.0	 0.0	 0.0	 0.0	 0.0	 0.0	 0.0;
	315	 2.4	 6.0	 6.0	 0.0	 1.04407	 100.0	 1	 12.0	 2.4	 0.0	 0.0	 0.0	 0.0	 0.0	 0.0	 0.0	 0.0	 0.0	 0.0	 0.0;
	315	 2.4	 6.0	 6.0	 0.0	 1.04407	 100.0	 1	 12.0	 2.4	 0.0	 0.0	 0.0	 0.0	 0.0	 0.0	 0.0	 0.0	 0.0	 0.0	 0.0;
	315	 54.3	 80.0	 80.0	 -50.0	 1.04407	 100.0	 1	 155.0	 54.3	 0.0	 0.0	 0.0	 0.0	 0.0	 0.0	 0.0	 0.0	 0.0	 0.0	 0.0;
	316	 54.3	 80.0	 80.0	 -50.0	 1.04693	 100.0	 1	 155.0	 54.3	 0.0	 0.0	 0.0	 0.0	 0.0	 0.0	 0.0	 0.0	 0.0	 0.0	 0.0;
	318	 400.0	 57.776	 200.0	 -50.0	 1.05	 100.0	 1	 400.0	 100.0	 0.0	 0.0	 0.0	 0.0	 0.0	 0.0	 0.0	 0.0	 0.0	 0.0	 0.0;
	321	 265.553	 -2.009	 200.0	 -50.0	 1.05	 100.0	 1	 400.0	 100.0	 0.0	 0.0	 0.0	 0.0	 0.0	 0.0	 0.0	 0.0	 0.0	 0.0	 0.0;
	322	 49.852	 -6.75	 16.0	 -10.0	 1.05	 100.0	 1	 50.0	 10.0	 0.0	 0.0	 0.0	 0.0	 0.0	 0.0	 0.0	 0.0	 0.0	 0.0	 0.0;
	322	 49.852	 -6.75	 16.0	 -10.0	 1.05	 100.0	 1	 50.0	 10.0	 0.0	 0.0	 0.0	 0.0	 0.0	 0.0	 0.0	 0.0	 0.0	 0.0	 0.0;
	322	 49.852	 -6.75	 16.0	 -10.0	 1.05	 100.0	 1	 50.0	 10.0	 0.0	 0.0	 0.0	 0.0	 0.0	 0.0	 0.0	 0.0	 0.0	 0.0	 0.0;
	322	 49.852	 -6.75	 16.0	 -10.0	 1.05	 100.0	 1	 50.0	 10.0	 0.0	 0.0	 0.0	 0.0	 0.0	 0.0	 0.0	 0.0	 0.0	 0.0	 0.0;
	322	 49.852	 -6.75	 16.0	 -10.0	 1.05	 100.0	 1	 50.0	 10.0	 0.0	 0.0	 0.0	 0.0	 0.0	 0.0	 0.0	 0.0	 0.0	 0.0	 0.0;
	322	 49.852	 -6.75	 16.0	 -10.0	 1.05	 100.0	 1	 50.0	 10.0	 0.0	 0.0	 0.0	 0.0	 0.0	 0.0	 0.0	 0.0	 0.0	 0.0	 0.0;
	323	 81.877	 -5.526	 80.0	 -50.0	 1.05	 100.0	 1	 155.0	 54.3	 0.0	 0.0	 0.0	 0.0	 0.0	 0.0	 0.0	 0.0	 0.0	 0.0	 0.0;
	323	 81.877	 -5.526	 80.0	 -50.0	 1.05	 100.0	 1	 155.0	 54.3	 0.0	 0.0	 0.0	 0.0	 0.0	 0.0	 0.0	 0.0	 0.0	 0.0	 0.0;
	323	 194.569	 27.715	 150.0	 -25.0	 1.05	 100.0	 1	 350.0	 140.0	 0.0	 0.0	 0.0	 0.0	 0.0	 0.0	 0.0	 0.0	 0.0	 0.0	 0.0;
];

%% generator cost data
%	2	startup	shutdown	n	c(n-1)	...	c0
mpc.gencost = [
	2	 1500.0	 0.0	 3	   0.000000	 130.000000	 400.684900;
	2	 1500.0	 0.0	 3	   0.000000	 130.000000	 400.684900;
	2	 1500.0	 0.0	 3	   0.014142	  16.081100	 212.307600;
	2	 1500.0	 0.0	 3	   0.014142	  16.081100	 212.307600;
	2	 1500.0	 0.0	 3	   0.000000	 130.000000	 400.684900;
	2	 1500.0	 0.0	 3	   0.000000	 130.000000	 400.684900;
	2	 1500.0	 0.0	 3	   0.014142	  16.081100	 212.307600;
	2	 1500.0	 0.0	 3	   0.014142	  16.081100	 212.307600;
	2	 1500.0	 0.0	 3	   0.052672	  43.661500	 781.521000;
	2	 1500.0	 0.0	 3	   0.052672	  43.661500	 781.521000;
	2	 1500.0	 0.0	 3	   0.052672	  43.661500	 781.521000;
	2	 1500.0	 0.0	 3	   0.007170	  48.580400	 832.757500;
	2	 1500.0	 0.0	 3	   0.007170	  48.580400	 832.757500;
	2	 1500.0	 0.0	 3	   0.007170	  48.580400	 832.757500;
	2	 1500.0	 0.0	 3	   0.000000	   0.000000	   0.000000;
	2	 1500.0	 0.0	 3	   0.328412	  56.564000	  86.385200;
	2	 1500.0	 0.0	 3	   0.328412	  56.564000	  86.385200;
	2	 1500.0	 0.0	 3	   0.328412	  56.564000	  86.385200;
	2	 1500.0	 0.0	 3	   0.328412	  56.564000	  86.385200;
	2	 1500.0	 0.0	 3	   0.328412	  56.564000	  86.385200;
	2	 1500.0	 0.0	 3	   0.008342	  12.388300	 382.239100;
	2	 1500.0	 0.0	 3	   0.008342	  12.388300	 382.239100;
	2	 1500.0	 0.0	 3	   0.000213	   4.423100	 395.374900;
	2	 1500.0	 0.0	 3	   0.000213	   4.423100	 395.374900;
	2	 1500.0	 0.0	 3	   0.000000	   0.001000	   0.001000;
	2	 1500.0	 0.0	 3	   0.000000	   0.001000	   0.001000;
	2	 1500.0	 0.0	 3	   0.000000	   0.001000	   0.001000;
	2	 1500.0	 0.0	 3	   0.000000	   0.001000	   0.001000;
	2	 1500.0	 0.0	 3	   0.000000	   0.001000	   0.001000;
	2	 1500.0	 0.0	 3	   0.000000	   0.001000	   0.001000;
	2	 1500.0	 0.0	 3	   0.008342	  12.388300	 382.239100;
	2	 1500.0	 0.0	 3	   0.008342	  12.388300	 382.239100;
	2	 1500.0	 0.0	 3	   0.004895	  11.849500	 665.109400;
	2	 1500.0	 0.0	 3	   0.000000	 130.000000	 400.684900;
	2	 1500.0	 0.0	 3	   0.000000	 130.000000	 400.684900;
	2	 1500.0	 0.0	 3	   0.014142	  16.081100	 212.307600;
	2	 1500.0	 0.0	 3	   0.014142	  16.081100	 212.307600;
	2	 1500.0	 0.0	 3	   0.000000	 130.000000	 400.684900;
	2	 1500.0	 0.0	 3	   0.000000	 130.000000	 400.684900;
	2	 1500.0	 0.0	 3	   0.014142	  16.081100	 212.307600;
	2	 1500.0	 0.0	 3	   0.014142	  16.081100	 212.307600;
	2	 1500.0	 0.0	 3	   0.052672	  43.661500	 781.521000;
	2	 1500.0	 0.0	 3	   0.052672	  43.661500	 781.521000;
	2	 1500.0	 0.0	 3	   0.052672	  43.661500	 781.521000;
	2	 1500.0	 0.0	 3	   0.007170	  48.580400	 832.757500;
	2	 1500.0	 0.0	 3	   0.007170	  48.580400	 832.757500;
	2	 1500.0	 0.0	 3	   0.007170	  48.580400	 832.757500;
	2	 1500.0	 0.0	 3	   0.000000	   0.000000	   0.000000;
	2	 1500.0	 0.0	 3	   0.328412	  56.564000	  86.385200;
	2	 1500.0	 0.0	 3	   0.328412	  56.564000	  86.385200;
	2	 1500.0	 0.0	 3	   0.328412	  56.564000	  86.385200;
	2	 1500.0	 0.0	 3	   0.328412	  56.564000	  86.385200;
	2	 1500.0	 0.0	 3	   0.328412	  56.564000	  86.385200;
	2	 1500.0	 0.0	 3	   0.008342	  12.388300	 382.239100;
	2	 1500.0	 0.0	 3	   0.008342	  12.388300	 382.239100;
	2	 1500.0	 0.0	 3	   0.000213	   4.423100	 395.374900;
	2	 1500.0	 0.0	 3	   0.000213	   4.423100	 395.374900;
	2	 1500.0	 0.0	 3	   0.000000	   0.001000	   0.001000;
	2	 1500.0	 0.0	 3	   0.000000	   0.001000	   0.001000;
	2	 1500.0	 0.0	 3	   0.000000	   0.001000	   0.001000;
	2	 1500.0	 0.0	 3	   0.000000	   0.001000	   0.001000;
	2	 1500.0	 0.0	 3	   0.000000	   0.001000	   0.001000;
	2	 1500.0	 0.0	 3	   0.000000	   0.001000	   0.001000;
	2	 1500.0	 0.0	 3	   0.008342	  12.388300	 382.239100;
	2	 1500.0	 0.0	 3	   0.008342	  12.388300	 382.239100;
	2	 1500.0	 0.0	 3	   0.004895	  11.849500	 665.109400;
	2	 1500.0	 0.0	 3	   0.000000	 130.000000	 400.684900;
	2	 1500.0	 0.0	 3	   0.000000	 130.000000	 400.684900;
	2	 1500.0	 0.0	 3	   0.014142	  16.081100	 212.307600;
	2	 1500.0	 0.0	 3	   0.014142	  16.081100	 212.307600;
	2	 1500.0	 0.0	 3	   0.000000	 130.000000	 400.684900;
	2	 1500.0	 0.0	 3	   0.000000	 130.000000	 400.684900;
	2	 1500.0	 0.0	 3	   0.014142	  16.081100	 212.307600;
	2	 1500.0	 0.0	 3	   0.014142	  16.081100	 212.307600;
	2	 1500.0	 0.0	 3	   0.052672	  43.661500	 781.521000;
	2	 1500.0	 0.0	 3	   0.052672	  43.661500	 781.521000;
	2	 1500.0	 0.0	 3	   0.052672	  43.661500	 781.521000;
	2	 1500.0	 0.0	 3	   0.007170	  48.580400	 832.757500;
	2	 1500.0	 0.0	 3	   0.007170	  48.580400	 832.757500;
	2	 1500.0	 0.0	 3	   0.007170	  48.580400	 832.757500;
	2	 1500.0	 0.0	 3	   0.000000	   0.000000	   0.000000;
	2	 1500.0	 0.0	 3	   0.328412	  56.564000	  86.385200;
	2	 1500.0	 0.0	 3	   0.328412	  56.564000	  86.385200;
	2	 1500.0	 0.0	 3	   0.328412	  56.564000	  86.385200;
	2	 1500.0	 0.0	 3	   0.328412	  56.564000	  86.385200;
	2	 1500.0	 0.0	 3	   0.328412	  56.564000	  86.385200;
	2	 1500.0	 0.0	 3	   0.008342	  12.388300	 382.239100;
	2	 1500.0	 0.0	 3	   0.008342	  12.388300	 382.239100;
	2	 1500.0	 0.0	 3	   0.000213	   4.423100	 395.374900;
	2	 1500.0	 0.0	 3	   0.000213	   4.423100	 395.374900;
	2	 1500.0	 0.0	 3	   0.000000	   0.001000	   0.001000;
	2	 1500.0	 0.0	 3	   0.000000	   0.001000	   0.001000;
	2	 1500.0	 0.0	 3	   0.000000	   0.001000	   0.001000;
	2	 1500.0	 0.0	 3	   0.000000	   0.001000	   0.001000;
	2	 1500.0	 0.0	 3	   0.000000	   0.001000	   0.001000;
	2	 1500.0	 0.0	 3	   0.000000	   0.001000	   0.001000;
	2	 1500.0	 0.0	 3	   0.008342	  12.388300	 382.239100;
	2	 1500.0	 0.0	 3	   0.008342	  12.388300	 382.239100;
	2	 1500.0	 0.0	 3	   0.004895	  11.849500	 665.109400;
];

%% branch data
%	fbus	tbus	r	x	b	rateA	rateB	rateC	ratio	angle	status	angmin	angmax
mpc.branch = [
	101	 102	 0.003	 0.014	 0.461	 175.0	 193.0	 200.0	 0.0	 0.0	 1	 -7.308475	 7.308475;
	101	 103	 0.055	 0.211	 0.057	 175.0	 208.0	 220.0	 0.0	 0.0	 1	 -7.308475	 7.308475;
	101	 105	 0.022	 0.085	 0.023	 175.0	 208.0	 220.0	 0.0	 0.0	 1	 -7.308475	 7.308475;
	102	 104	 0.033	 0.127	 0.034	 175.0	 208.0	 220.0	 0.0	 0.0	 1	 -7.308475	 7.308475;
	102	 106	 0.05	 0.192	 0.052	 175.0	 208.0	 220.0	 0.0	 0.0	 1	 -7.308475	 7.308475;
	103	 109	 0.031	 0.119	 0.032	 175.0	 208.0	 220.0	 0.0	 0.0	 1	 -7.308475	 7.308475;
	103	 124	 0.002	 0.084	 0.0	 400.0	 510.0	 600.0	 1.015	 0.0	 1	 -7.308475	 7.308475;
	104	 109	 0.027	 0.104	 0.028	 175.0	 208.0	 220.0	 0.0	 0.0	 1	 -7.308475	 7.308475;
	105	 110	 0.023	 0.088	 0.024	 175.0	 208.0	 220.0	 0.0	 0.0	 1	 -7.308475	 7.308475;
	106	 110	 0.014	 0.061	 2.459	 175.0	 193.0	 200.0	 0.0	 0.0	 1	 -7.308475	 7.308475;
	107	 108	 0.016	 0.061	 0.017	 175.0	 208.0	 220.0	 0.0	 0.0	 1	 -7.308475	 7.308475;
	107	 203	 0.042	 0.161	 0.044	 175.0	 208.0	 220.0	 0.0	 0.0	 1	 -7.308475	 7.308475;
	108	 109	 0.043	 0.165	 0.045	 175.0	 208.0	 220.0	 0.0	 0.0	 1	 -7.308475	 7.308475;
	108	 110	 0.043	 0.165	 0.045	 175.0	 208.0	 220.0	 0.0	 0.0	 1	 -7.308475	 7.308475;
	109	 111	 0.002	 0.084	 0.0	 400.0	 510.0	 600.0	 1.03	 0.0	 1	 -7.308475	 7.308475;
	109	 112	 0.002	 0.084	 0.0	 400.0	 510.0	 600.0	 1.03	 0.0	 1	 -7.308475	 7.308475;
	110	 111	 0.002	 0.084	 0.0	 400.0	 510.0	 600.0	 1.015	 0.0	 1	 -7.308475	 7.308475;
	110	 112	 0.002	 0.084	 0.0	 400.0	 510.0	 600.0	 1.015	 0.0	 1	 -7.308475	 7.308475;
	111	 113	 0.006	 0.048	 0.1	 500.0	 600.0	 625.0	 0.0	 0.0	 1	 -7.308475	 7.308475;
	111	 114	 0.005	 0.042	 0.088	 500.0	 600.0	 625.0	 0.0	 0.0	 1	 -7.308475	 7.308475;
	112	 113	 0.006	 0.048	 0.1	 500.0	 600.0	 625.0	 0.0	 0.0	 1	 -7.308475	 7.308475;
	112	 123	 0.012	 0.097	 0.203	 500.0	 600.0	 625.0	 0.0	 0.0	 1	 -7.308475	 7.308475;
	113	 123	 0.011	 0.087	 0.182	 500.0	 600.0	 625.0	 0.0	 0.0	 1	 -7.308475	 7.308475;
	113	 215	 0.01	 0.075	 0.158	 500.0	 600.0	 625.0	 0.0	 0.0	 1	 -7.308475	 7.308475;
	114	 116	 0.005	 0.059	 0.082	 500.0	 600.0	 625.0	 0.0	 0.0	 1	 -7.308475	 7.308475;
	115	 116	 0.002	 0.017	 0.036	 500.0	 600.0	 625.0	 0.0	 0.0	 1	 -7.308475	 7.308475;
	115	 121	 0.006	 0.049	 0.103	 500.0	 600.0	 625.0	 0.0	 0.0	 1	 -7.308475	 7.308475;
	115	 121	 0.006	 0.049	 0.103	 500.0	 600.0	 625.0	 0.0	 0.0	 1	 -7.308475	 7.308475;
	115	 124	 0.007	 0.052	 0.109	 500.0	 600.0	 625.0	 0.0	 0.0	 1	 -7.308475	 7.308475;
	116	 117	 0.003	 0.026	 0.055	 500.0	 600.0	 625.0	 0.0	 0.0	 1	 -7.308475	 7.308475;
	116	 119	 0.003	 0.023	 0.049	 500.0	 600.0	 625.0	 0.0	 0.0	 1	 -7.308475	 7.308475;
	117	 118	 0.002	 0.014	 0.03	 500.0	 600.0	 625.0	 0.0	 0.0	 1	 -7.308475	 7.308475;
	117	 122	 0.014	 0.105	 0.221	 500.0	 600.0	 625.0	 0.0	 0.0	 1	 -7.308475	 7.308475;
	118	 121	 0.003	 0.026	 0.055	 500.0	 600.0	 625.0	 0.0	 0.0	 1	 -7.308475	 7.308475;
	118	 121	 0.003	 0.026	 0.055	 500.0	 600.0	 625.0	 0.0	 0.0	 1	 -7.308475	 7.308475;
	119	 120	 0.005	 0.04	 0.083	 500.0	 600.0	 625.0	 0.0	 0.0	 1	 -7.308475	 7.308475;
	119	 120	 0.005	 0.04	 0.083	 500.0	 600.0	 625.0	 0.0	 0.0	 1	 -7.308475	 7.308475;
	120	 123	 0.003	 0.022	 0.046	 500.0	 600.0	 625.0	 0.0	 0.0	 1	 -7.308475	 7.308475;
	120	 123	 0.003	 0.022	 0.046	 500.0	 600.0	 625.0	 0.0	 0.0	 1	 -7.308475	 7.308475;
	121	 122	 0.009	 0.068	 0.142	 500.0	 600.0	 625.0	 0.0	 0.0	 1	 -7.308475	 7.308475;
	123	 217	 0.01	 0.074	 0.155	 500.0	 600.0	 625.0	 0.0	 0.0	 1	 -7.308475	 7.308475;
	201	 202	 0.003	 0.014	 0.461	 175.0	 193.0	 200.0	 0.0	 0.0	 1	 -7.308475	 7.308475;
	201	 203	 0.055	 0.211	 0.057	 175.0	 208.0	 220.0	 0.0	 0.0	 1	 -7.308475	 7.308475;
	201	 205	 0.022	 0.085	 0.023	 175.0	 208.0	 220.0	 0.0	 0.0	 1	 -7.308475	 7.308475;
	202	 204	 0.033	 0.127	 0.034	 175.0	 208.0	 220.0	 0.0	 0.0	 1	 -7.308475	 7.308475;
	202	 206	 0.05	 0.192	 0.052	 175.0	 208.0	 220.0	 0.0	 0.0	 1	 -7.308475	 7.308475;
	203	 209	 0.031	 0.119	 0.032	 175.0	 208.0	 220.0	 0.0	 0.0	 1	 -7.308475	 7.308475;
	203	 224	 0.002	 0.084	 0.0	 400.0	 510.0	 600.0	 1.015	 0.0	 1	 -7.308475	 7.308475;
	204	 209	 0.027	 0.104	 0.028	 175.0	 208.0	 220.0	 0.0	 0.0	 1	 -7.308475	 7.308475;
	205	 210	 0.023	 0.088	 0.024	 175.0	 208.0	 220.0	 0.0	 0.0	 1	 -7.308475	 7.308475;
	206	 210	 0.014	 0.061	 2.459	 175.0	 193.0	 200.0	 0.0	 0.0	 1	 -7.308475	 7.308475;
	207	 208	 0.016	 0.061	 0.017	 175.0	 208.0	 220.0	 0.0	 0.0	 1	 -7.308475	 7.308475;
	208	 209	 0.043	 0.165	 0.045	 175.0	 208.0	 220.0	 0.0	 0.0	 1	 -7.308475	 7.308475;
	208	 210	 0.043	 0.165	 0.045	 175.0	 208.0	 220.0	 0.0	 0.0	 1	 -7.308475	 7.308475;
	209	 211	 0.002	 0.084	 0.0	 400.0	 510.0	 600.0	 1.03	 0.0	 1	 -7.308475	 7.308475;
	209	 212	 0.002	 0.084	 0.0	 400.0	 510.0	 600.0	 1.03	 0.0	 1	 -7.308475	 7.308475;
	210	 211	 0.002	 0.084	 0.0	 400.0	 510.0	 600.0	 1.015	 0.0	 1	 -7.308475	 7.308475;
	210	 212	 0.002	 0.084	 0.0	 400.0	 510.0	 600.0	 1.015	 0.0	 1	 -7.308475	 7.308475;
	211	 213	 0.006	 0.048	 0.1	 500.0	 600.0	 625.0	 0.0	 0.0	 1	 -7.308475	 7.308475;
	211	 214	 0.005	 0.042	 0.088	 500.0	 600.0	 625.0	 0.0	 0.0	 1	 -7.308475	 7.308475;
	212	 213	 0.006	 0.048	 0.1	 500.0	 600.0	 625.0	 0.0	 0.0	 1	 -7.308475	 7.308475;
	212	 223	 0.012	 0.097	 0.203	 500.0	 600.0	 625.0	 0.0	 0.0	 1	 -7.308475	 7.308475;
	213	 223	 0.011	 0.087	 0.182	 500.0	 600.0	 625.0	 0.0	 0.0	 1	 -7.308475	 7.308475;
	214	 216	 0.005	 0.059	 0.082	 500.0	 600.0	 625.0	 0.0	 0.0	 1	 -7.308475	 7.308475;
	215	 216	 0.002	 0.017	 0.036	 500.0	 600.0	 625.0	 0.0	 0.0	 1	 -7.308475	 7.308475;
	215	 221	 0.006	 0.049	 0.103	 500.0	 600.0	 625.0	 0.0	 0.0	 1	 -7.308475	 7.308475;
	215	 221	 0.006	 0.049	 0.103	 500.0	 600.0	 625.0	 0.0	 0.0	 1	 -7.308475	 7.308475;
	215	 224	 0.007	 0.052	 0.109	 500.0	 600.0	 625.0	 0.0	 0.0	 1	 -7.308475	 7.308475;
	216	 217	 0.003	 0.026	 0.055	 500.0	 600.0	 625.0	 0.0	 0.0	 1	 -7.308475	 7.308475;
	216	 219	 0.003	 0.023	 0.049	 500.0	 600.0	 625.0	 0.0	 0.0	 1	 -7.308475	 7.308475;
	217	 218	 0.002	 0.014	 0.03	 500.0	 600.0	 625.0	 0.0	 0.0	 1	 -7.308475	 7.308475;
	217	 222	 0.014	 0.105	 0.221	 500.0	 600.0	 625.0	 0.0	 0.0	 1	 -7.308475	 7.308475;
	218	 221	 0.003	 0.026	 0.055	 500.0	 600.0	 625.0	 0.0	 0.0	 1	 -7.308475	 7.308475;
	218	 221	 0.003	 0.026	 0.055	 500.0	 600.0	 625.0	 0.0	 0.0	 1	 -7.308475	 7.308475;
	219	 220	 0.005	 0.04	 0.083	 500.0	 600.0	 625.0	 0.0	 0.0	 1	 -7.308475	 7.308475;
	219	 220	 0.005	 0.04	 0.083	 500.0	 600.0	 625.0	 0.0	 0.0	 1	 -7.308475	 7.308475;
	220	 223	 0.003	 0.022	 0.046	 500.0	 600.0	 625.0	 0.0	 0.0	 1	 -7.308475	 7.308475;
	220	 223	 0.003	 0.022	 0.046	 500.0	 600.0	 625.0	 0.0	 0.0	 1	 -7.308475	 7.308475;
	221	 222	 0.009	 0.068	 0.142	 500.0	 600.0	 625.0	 0.0	 0.0	 1	 -7.308475	 7.308475;
	301	 302	 0.003	 0.014	 0.461	 175.0	 193.0	 200.0	 0.0	 0.0	 1	 -7.308475	 7.308475;
	301	 303	 0.055	 0.211	 0.057	 175.0	 208.0	 220.0	 0.0	 0.0	 1	 -7.308475	 7.308475;
	301	 305	 0.022	 0.085	 0.023	 175.0	 208.0	 220.0	 0.0	 0.0	 1	 -7.308475	 7.308475;
	302	 304	 0.033	 0.127	 0.034	 175.0	 208.0	 220.0	 0.0	 0.0	 1	 -7.308475	 7.308475;
	302	 306	 0.05	 0.192	 0.052	 175.0	 208.0	 220.0	 0.0	 0.0	 1	 -7.308475	 7.308475;
	303	 309	 0.031	 0.119	 0.032	 175.0	 208.0	 220.0	 0.0	 0.0	 1	 -7.308475	 7.308475;
	303	 324	 0.002	 0.084	 0.0	 400.0	 510.0	 600.0	 1.015	 0.0	 1	 -7.308475	 7.308475;
	304	 309	 0.027	 0.104	 0.028	 175.0	 208.0	 220.0	 0.0	 0.0	 1	 -7.308475	 7.308475;
	305	 310	 0.023	 0.088	 0.024	 175.0	 208.0	 220.0	 0.0	 0.0	 1	 -7.308475	 7.308475;
	306	 310	 0.014	 0.061	 2.459	 175.0	 193.0	 200.0	 0.0	 0.0	 1	 -7.308475	 7.308475;
	307	 308	 0.016	 0.061	 0.017	 175.0	 208.0	 220.0	 0.0	 0.0	 1	 -7.308475	 7.308475;
	308	 309	 0.043	 0.165	 0.045	 175.0	 208.0	 220.0	 0.0	 0.0	 1	 -7.308475	 7.308475;
	308	 310	 0.043	 0.165	 0.045	 175.0	 208.0	 220.0	 0.0	 0.0	 1	 -7.308475	 7.308475;
	309	 311	 0.002	 0.084	 0.0	 400.0	 510.0	 600.0	 1.03	 0.0	 1	 -7.308475	 7.308475;
	309	 312	 0.002	 0.084	 0.0	 400.0	 510.0	 600.0	 1.03	 0.0	 1	 -7.308475	 7.308475;
	310	 311	 0.002	 0.084	 0.0	 400.0	 510.0	 600.0	 1.015	 0.0	 1	 -7.308475	 7.308475;
	310	 312	 0.002	 0.084	 0.0	 400.0	 510.0	 600.0	 1.015	 0.0	 1	 -7.308475	 7.308475;
	311	 313	 0.006	 0.048	 0.1	 500.0	 600.0	 625.0	 0.0	 0.0	 1	 -7.308475	 7.308475;
	311	 314	 0.005	 0.042	 0.088	 500.0	 600.0	 625.0	 0.0	 0.0	 1	 -7.308475	 7.308475;
	312	 313	 0.006	 0.048	 0.1	 500.0	 600.0	 625.0	 0.0	 0.0	 1	 -7.308475	 7.308475;
	312	 323	 0.012	 0.097	 0.203	 500.0	 600.0	 625.0	 0.0	 0.0	 1	 -7.308475	 7.308475;
	313	 323	 0.011	 0.087	 0.182	 500.0	 600.0	 625.0	 0.0	 0.0	 1	 -7.308475	 7.308475;
	314	 316	 0.005	 0.059	 0.082	 500.0	 600.0	 625.0	 0.0	 0.0	 1	 -7.308475	 7.308475;
	315	 316	 0.002	 0.017	 0.036	 500.0	 600.0	 625.0	 0.0	 0.0	 1	 -7.308475	 7.308475;
	315	 321	 0.006	 0.049	 0.103	 500.0	 600.0	 625.0	 0.0	 0.0	 1	 -7.308475	 7.308475;
	315	 321	 0.006	 0.049	 0.103	 500.0	 600.0	 625.0	 0.0	 0.0	 1	 -7.308475	 7.308475;
	315	 324	 0.007	 0.052	 0.109	 500.0	 600.0	 625.0	 0.0	 0.0	 1	 -7.308475	 7.308475;
	316	 317	 0.003	 0.026	 0.055	 500.0	 600.0	 625.0	 0.0	 0.0	 1	 -7.308475	 7.308475;
	316	 319	 0.003	 0.023	 0.049	 500.0	 600.0	 625.0	 0.0	 0.0	 1	 -7.308475	 7.308475;
	317	 318	 0.002	 0.014	 0.03	 500.0	 600.0	 625.0	 0.0	 0.0	 1	 -7.308475	 7.308475;
	317	 322	 0.014	 0.105	 0.221	 500.0	 600.0	 625.0	 0.0	 0.0	 1	 -7.308475	 7.308475;
	318	 321	 0.003	 0.026	 0.055	 500.0	 600.0	 625.0	 0.0	 0.0	 1	 -7.308475	 7.308475;
	318	 321	 0.003	 0.026	 0.055	 500.0	 600.0	 625.0	 0.0	 0.0	 1	 -7.308475	 7.308475;
	319	 320	 0.005	 0.04	 0.083	 500.0	 600.0	 625.0	 0.0	 0.0	 1	 -7.308475	 7.308475;
	319	 320	 0.005	 0.04	 0.083	 500.0	 600.0	 625.0	 0.0	 0.0	 1	 -7.308475	 7.308475;
	320	 323	 0.003	 0.022	 0.046	 500.0	 600.0	 625.0	 0.0	 0.0	 1	 -7.308475	 7.308475;
	320	 323	 0.003	 0.022	 0.046	 500.0	 600.0	 625.0	 0.0	 0.0	 1	 -7.308475	 7.308475;
	321	 322	 0.009	 0.068	 0.142	 500.0	 600.0	 625.0	 0.0	 0.0	 1	 -7.308475	 7.308475;
	325	 121	 0.012	 0.097	 0.203	 500.0	 600.0	 625.0	 0.0	 0.0	 1	 -7.308475	 7.308475;
	318	 223	 0.013	 0.104	 0.218	 500.0	 600.0	 625.0	 0.0	 0.0	 1	 -7.308475	 7.308475;
	323	 325	 0.0	 0.009	 0.0	 722.0	 893.0	 893.0	 0.0	 0.0	 1	 -7.308475	 7.308475;
];

% INFO    : === Translation Options ===
% INFO    : Phase Angle Bound:           7.308475 (deg.)
% INFO    : AC OPF Solution File:        ./nesta_case73_ieee_rts__sad.dat.opf.sol
% INFO    : 
% INFO    : === Voltage Setpoint Replacement Notes ===
% INFO    : Bus 101	: V=1.04777, theta=-7.74152 -> V=1.03143, theta=-8.01425
% INFO    : Bus 102	: V=1.04783, theta=-7.81784 -> V=1.0286, theta=-7.99769
% INFO    : Bus 103	: V=1.01085, theta=-7.2109 -> V=1.01001, theta=-9.92758
% INFO    : Bus 104	: V=1.01765, theta=-10.56614 -> V=1.01031, theta=-11.12025
% INFO    : Bus 105	: V=1.03568, theta=-10.70887 -> V=1.02722, theta=-11.06187
% INFO    : Bus 106	: V=1.03242, theta=-13.27944 -> V=1.02756, theta=-13.64293
% INFO    : Bus 107	: V=1.03745, theta=-11.27673 -> V=1.05, theta=-5.07463
% INFO    : Bus 108	: V=1.01024, theta=-13.74967 -> V=1.01729, theta=-10.37403
% INFO    : Bus 109	: V=1.0261, theta=-8.81524 -> V=1.0289, theta=-9.60936
% INFO    : Bus 110	: V=1.05, theta=-10.62063 -> V=1.05, theta=-10.98297
% INFO    : Bus 111	: V=1.02764, theta=-3.91674 -> V=1.0339, theta=-5.19386
% INFO    : Bus 112	: V=1.02024, theta=-2.42424 -> V=1.02788, theta=-3.67449
% INFO    : Bus 113	: V=1.03943, theta=-0.0 -> V=1.05, theta=0.0
% INFO    : Bus 114	: V=1.04401, theta=-1.73056 -> V=1.05, theta=-4.85994
% INFO    : Bus 115	: V=1.04335, theta=7.9597 -> V=1.04534, theta=1.59712
% INFO    : Bus 116	: V=1.04565, theta=7.56929 -> V=1.04885, theta=1.79611
% INFO    : Bus 117	: V=1.04783, theta=11.43417 -> V=1.04914, theta=5.25849
% INFO    : Bus 118	: V=1.05, theta=12.52457 -> V=1.05, theta=6.16881
% INFO    : Bus 119	: V=1.03962, theta=6.65777 -> V=1.04145, theta=1.03797
% INFO    : Bus 120	: V=1.04399, theta=7.7406 -> V=1.0446, theta=2.24789
% INFO    : Bus 121	: V=1.05, theta=13.08653 -> V=1.05, theta=6.55607
% INFO    : Bus 122	: V=1.05, theta=18.94978 -> V=1.05, theta=12.55878
% INFO    : Bus 123	: V=1.05, theta=9.05617 -> V=1.05, theta=3.63398
% INFO    : Bus 124	: V=1.01155, theta=2.38339 -> V=1.01768, theta=-2.6191
% INFO    : Bus 201	: V=1.04841, theta=-10.68973 -> V=1.03583, theta=-3.40417
% INFO    : Bus 202	: V=1.04844, theta=-10.75906 -> V=1.03539, theta=-3.41632
% INFO    : Bus 203	: V=1.01886, theta=-10.47453 -> V=1.0228, theta=-5.41325
% INFO    : Bus 204	: V=1.0189, theta=-13.48479 -> V=1.01462, theta=-6.45723
% INFO    : Bus 205	: V=1.03603, theta=-13.61187 -> V=1.02951, theta=-6.39673
% INFO    : Bus 206	: V=1.03259, theta=-16.15672 -> V=1.02929, theta=-8.95396
% INFO    : Bus 207	: V=1.03973, theta=-13.46606 -> V=1.03372, theta=0.64698
% INFO    : Bus 208	: V=1.01203, theta=-16.22359 -> V=1.0076, theta=-5.16814
% INFO    : Bus 209	: V=1.02781, theta=-11.72409 -> V=1.03098, theta=-4.91604
% INFO    : Bus 210	: V=1.05, theta=-13.47986 -> V=1.05, theta=-6.28151
% INFO    : Bus 211	: V=1.02735, theta=-6.93336 -> V=1.03435, theta=-0.67048
% INFO    : Bus 212	: V=1.01921, theta=-5.25334 -> V=1.0283, theta=1.02697
% INFO    : Bus 213	: V=1.03752, theta=-3.2151 -> V=1.05, theta=4.71607
% INFO    : Bus 214	: V=1.04335, theta=-4.68519 -> V=1.05, theta=-0.66394
% INFO    : Bus 215	: V=1.04327, theta=4.63351 -> V=1.048, theta=5.32524
% INFO    : Bus 216	: V=1.04556, theta=4.70009 -> V=1.04905, theta=5.5283
% INFO    : Bus 217	: V=1.04847, theta=8.81839 -> V=1.04478, theta=8.34295
% INFO    : Bus 218	: V=1.05, theta=9.99473 -> V=1.04096, theta=9.82055
% INFO    : Bus 219	: V=1.03946, theta=4.21233 -> V=1.04143, theta=5.18258
% INFO    : Bus 220	: V=1.0438, theta=5.66449 -> V=1.04445, theta=6.75259
% INFO    : Bus 221	: V=1.05, theta=10.63209 -> V=1.05, theta=10.63226
% INFO    : Bus 222	: V=1.05, theta=16.43203 -> V=1.05, theta=15.65143
% INFO    : Bus 223	: V=1.05, theta=7.18151 -> V=1.05, theta=8.33545
% INFO    : Bus 224	: V=1.01456, theta=-0.96005 -> V=1.02509, theta=1.35963
% INFO    : Bus 301	: V=1.0486, theta=-9.34821 -> V=1.03954, theta=-12.18653
% INFO    : Bus 302	: V=1.04864, theta=-9.431 -> V=1.03522, theta=-12.16693
% INFO    : Bus 303	: V=1.01045, theta=-8.57689 -> V=1.01112, theta=-13.8956
% INFO    : Bus 304	: V=1.01785, theta=-12.18784 -> V=1.01288, theta=-15.12551
% INFO    : Bus 305	: V=1.03609, theta=-12.35005 -> V=1.03147, theta=-15.08432
% INFO    : Bus 306	: V=1.0326, theta=-14.94205 -> V=1.02928, theta=-17.59525
% INFO    : Bus 307	: V=1.03804, theta=-12.54795 -> V=1.03186, theta=-7.92509
% INFO    : Bus 308	: V=1.01056, theta=-15.18287 -> V=1.00581, theta=-13.76302
% INFO    : Bus 309	: V=1.02579, theta=-10.44617 -> V=1.02799, theta=-13.50479
% INFO    : Bus 310	: V=1.05, theta=-12.30117 -> V=1.05, theta=-14.88871
% INFO    : Bus 311	: V=1.0283, theta=-5.74069 -> V=1.0338, theta=-9.16755
% INFO    : Bus 312	: V=1.019, theta=-4.14604 -> V=1.0277, theta=-7.58023
% INFO    : Bus 313	: V=1.03802, theta=-2.41513 -> V=1.05, theta=-3.91577
% INFO    : Bus 314	: V=1.04631, theta=-3.20793 -> V=1.05, theta=-8.95768
% INFO    : Bus 315	: V=1.043, theta=7.05088 -> V=1.04407, theta=-2.35543
% INFO    : Bus 316	: V=1.04558, theta=6.59875 -> V=1.04693, theta=-2.45323
% INFO    : Bus 317	: V=1.04785, theta=10.34418 -> V=1.04807, theta=1.69945
% INFO    : Bus 318	: V=1.05, theta=11.34262 -> V=1.05, theta=2.97503
% INFO    : Bus 319	: V=1.03953, theta=5.91539 -> V=1.04029, theta=-3.06727
% INFO    : Bus 320	: V=1.04389, theta=7.19709 -> V=1.04414, theta=-1.72781
% INFO    : Bus 321	: V=1.05, theta=12.34122 -> V=1.05, theta=3.04241
% INFO    : Bus 322	: V=1.05, theta=18.06914 -> V=1.05, theta=9.00793
% INFO    : Bus 323	: V=1.05, theta=8.62112 -> V=1.05, theta=-0.27175
% INFO    : Bus 324	: V=1.01046, theta=1.30606 -> V=1.01729, theta=-6.58712
% INFO    : Bus 325	: V=1.04986, theta=8.99332 -> V=1.04912, theta=0.29588
% INFO    : 
% INFO    : === Generator Setpoint Replacement Notes ===
% INFO    : Gen at bus 101	: Pg=16.0, Qg=4.88 -> Pg=20.0, Qg=4.919
% INFO    : Gen at bus 101	: Vg=1.04777 -> Vg=1.03143
% INFO    : Gen at bus 101	: Pg=16.0, Qg=4.88 -> Pg=20.0, Qg=4.919
% INFO    : Gen at bus 101	: Vg=1.04777 -> Vg=1.03143
% INFO    : Gen at bus 101	: Pg=76.0, Qg=-1.077 -> Pg=76.0, Qg=0.072
% INFO    : Gen at bus 101	: Vg=1.04777 -> Vg=1.03143
% INFO    : Gen at bus 101	: Pg=76.0, Qg=-1.077 -> Pg=76.0, Qg=0.072
% INFO    : Gen at bus 101	: Vg=1.04777 -> Vg=1.03143
% INFO    : Gen at bus 102	: Pg=16.0, Qg=4.82 -> Pg=20.0, Qg=2.884
% INFO    : Gen at bus 102	: Vg=1.04783 -> Vg=1.0286
% INFO    : Gen at bus 102	: Pg=16.0, Qg=4.82 -> Pg=20.0, Qg=2.884
% INFO    : Gen at bus 102	: Vg=1.04783 -> Vg=1.0286
% INFO    : Gen at bus 102	: Pg=76.0, Qg=-2.741 -> Pg=76.0, Qg=-20.51
% INFO    : Gen at bus 102	: Vg=1.04783 -> Vg=1.0286
% INFO    : Gen at bus 102	: Pg=76.0, Qg=-2.741 -> Pg=76.0, Qg=-20.51
% INFO    : Gen at bus 102	: Vg=1.04783 -> Vg=1.0286
% INFO    : Gen at bus 107	: Pg=66.816, Qg=20.616 -> Pg=100.0, Qg=19.096
% INFO    : Gen at bus 107	: Vg=1.03745 -> Vg=1.05
% INFO    : Gen at bus 107	: Pg=66.816, Qg=20.616 -> Pg=100.0, Qg=19.096
% INFO    : Gen at bus 107	: Vg=1.03745 -> Vg=1.05
% INFO    : Gen at bus 107	: Pg=66.816, Qg=20.616 -> Pg=100.0, Qg=19.096
% INFO    : Gen at bus 107	: Vg=1.03745 -> Vg=1.05
% INFO    : Gen at bus 113	: Pg=69.0, Qg=36.655 -> Pg=136.38, Qg=38.877
% INFO    : Gen at bus 113	: Vg=1.03943 -> Vg=1.05
% INFO    : Gen at bus 113	: Pg=69.0, Qg=36.655 -> Pg=136.38, Qg=38.877
% INFO    : Gen at bus 113	: Vg=1.03943 -> Vg=1.05
% INFO    : Gen at bus 113	: Pg=69.0, Qg=36.655 -> Pg=136.38, Qg=38.877
% INFO    : Gen at bus 113	: Vg=1.03943 -> Vg=1.05
% INFO    : Gen at bus 114	: Pg=0.0, Qg=106.688 -> Pg=0.0, Qg=100.313
% INFO    : Gen at bus 114	: Vg=1.04401 -> Vg=1.05
% INFO    : Gen at bus 115	: Pg=2.4, Qg=6.0 -> Pg=2.4, Qg=6.0
% INFO    : Gen at bus 115	: Vg=1.04335 -> Vg=1.04534
% INFO    : Gen at bus 115	: Pg=2.4, Qg=6.0 -> Pg=2.4, Qg=6.0
% INFO    : Gen at bus 115	: Vg=1.04335 -> Vg=1.04534
% INFO    : Gen at bus 115	: Pg=2.4, Qg=6.0 -> Pg=2.4, Qg=6.0
% INFO    : Gen at bus 115	: Vg=1.04335 -> Vg=1.04534
% INFO    : Gen at bus 115	: Pg=2.4, Qg=6.0 -> Pg=2.4, Qg=6.0
% INFO    : Gen at bus 115	: Vg=1.04335 -> Vg=1.04534
% INFO    : Gen at bus 115	: Pg=2.4, Qg=6.0 -> Pg=2.4, Qg=6.0
% INFO    : Gen at bus 115	: Vg=1.04335 -> Vg=1.04534
% INFO    : Gen at bus 115	: Pg=155.0, Qg=80.0 -> Pg=54.3, Qg=80.0
% INFO    : Gen at bus 115	: Vg=1.04335 -> Vg=1.04534
% INFO    : Gen at bus 116	: Pg=155.0, Qg=80.0 -> Pg=155.0, Qg=80.0
% INFO    : Gen at bus 116	: Vg=1.04565 -> Vg=1.04885
% INFO    : Gen at bus 118	: Pg=400.0, Qg=66.602 -> Pg=400.0, Qg=56.765
% INFO    : Gen at bus 118	: Vg=1.05 -> Vg=1.05
% INFO    : Gen at bus 121	: Pg=400.0, Qg=-25.009 -> Pg=400.0, Qg=-29.996
% INFO    : Gen at bus 121	: Vg=1.05 -> Vg=1.05
% INFO    : Gen at bus 122	: Pg=50.0, Qg=-6.699 -> Pg=50.0, Qg=-6.933
% INFO    : Gen at bus 122	: Vg=1.05 -> Vg=1.05
% INFO    : Gen at bus 122	: Pg=50.0, Qg=-6.699 -> Pg=50.0, Qg=-6.933
% INFO    : Gen at bus 122	: Vg=1.05 -> Vg=1.05
% INFO    : Gen at bus 122	: Pg=50.0, Qg=-6.699 -> Pg=50.0, Qg=-6.933
% INFO    : Gen at bus 122	: Vg=1.05 -> Vg=1.05
% INFO    : Gen at bus 122	: Pg=50.0, Qg=-6.699 -> Pg=50.0, Qg=-6.933
% INFO    : Gen at bus 122	: Vg=1.05 -> Vg=1.05
% INFO    : Gen at bus 122	: Pg=50.0, Qg=-6.699 -> Pg=50.0, Qg=-6.933
% INFO    : Gen at bus 122	: Vg=1.05 -> Vg=1.05
% INFO    : Gen at bus 122	: Pg=50.0, Qg=-6.699 -> Pg=50.0, Qg=-6.933
% INFO    : Gen at bus 122	: Vg=1.05 -> Vg=1.05
% INFO    : Gen at bus 123	: Pg=155.0, Qg=-3.222 -> Pg=79.363, Qg=-3.885
% INFO    : Gen at bus 123	: Vg=1.05 -> Vg=1.05
% INFO    : Gen at bus 123	: Pg=155.0, Qg=-3.222 -> Pg=79.363, Qg=-3.885
% INFO    : Gen at bus 123	: Vg=1.05 -> Vg=1.05
% INFO    : Gen at bus 123	: Pg=350.0, Qg=31.24 -> Pg=190.286, Qg=30.212
% INFO    : Gen at bus 123	: Vg=1.05 -> Vg=1.05
% INFO    : Gen at bus 201	: Pg=16.0, Qg=4.824 -> Pg=20.0, Qg=4.531
% INFO    : Gen at bus 201	: Vg=1.04841 -> Vg=1.03583
% INFO    : Gen at bus 201	: Pg=16.0, Qg=4.824 -> Pg=20.0, Qg=4.531
% INFO    : Gen at bus 201	: Vg=1.04841 -> Vg=1.03583
% INFO    : Gen at bus 201	: Pg=76.0, Qg=-2.64 -> Pg=76.0, Qg=-9.21
% INFO    : Gen at bus 201	: Vg=1.04841 -> Vg=1.03583
% INFO    : Gen at bus 201	: Pg=76.0, Qg=-2.64 -> Pg=76.0, Qg=-9.21
% INFO    : Gen at bus 201	: Vg=1.04841 -> Vg=1.03583
% INFO    : Gen at bus 202	: Pg=16.0, Qg=4.811 -> Pg=19.945, Qg=4.414
% INFO    : Gen at bus 202	: Vg=1.04844 -> Vg=1.03539
% INFO    : Gen at bus 202	: Pg=16.0, Qg=4.811 -> Pg=19.945, Qg=4.414
% INFO    : Gen at bus 202	: Vg=1.04844 -> Vg=1.03539
% INFO    : Gen at bus 202	: Pg=76.0, Qg=-2.989 -> Pg=76.0, Qg=-11.092
% INFO    : Gen at bus 202	: Vg=1.04844 -> Vg=1.03539
% INFO    : Gen at bus 202	: Pg=76.0, Qg=-2.989 -> Pg=76.0, Qg=-11.092
% INFO    : Gen at bus 202	: Vg=1.04844 -> Vg=1.03539
% INFO    : Gen at bus 207	: Pg=71.574, Qg=16.584 -> Pg=99.962, Qg=10.428
% INFO    : Gen at bus 207	: Vg=1.03973 -> Vg=1.03372
% INFO    : Gen at bus 207	: Pg=71.574, Qg=16.584 -> Pg=99.962, Qg=10.428
% INFO    : Gen at bus 207	: Vg=1.03973 -> Vg=1.03372
% INFO    : Gen at bus 207	: Pg=71.574, Qg=16.584 -> Pg=99.962, Qg=10.428
% INFO    : Gen at bus 207	: Vg=1.03973 -> Vg=1.03372
% INFO    : Gen at bus 213	: Pg=90.186, Qg=35.467 -> Pg=183.359, Qg=32.107
% INFO    : Gen at bus 213	: Vg=1.03752 -> Vg=1.05
% INFO    : Gen at bus 213	: Pg=90.186, Qg=35.467 -> Pg=183.359, Qg=32.107
% INFO    : Gen at bus 213	: Vg=1.03752 -> Vg=1.05
% INFO    : Gen at bus 213	: Pg=90.186, Qg=35.467 -> Pg=183.359, Qg=32.107
% INFO    : Gen at bus 213	: Vg=1.03752 -> Vg=1.05
% INFO    : Gen at bus 214	: Pg=0.0, Qg=105.2 -> Pg=0.0, Qg=97.615
% INFO    : Gen at bus 214	: Vg=1.04335 -> Vg=1.05
% INFO    : Gen at bus 215	: Pg=2.4, Qg=6.0 -> Pg=2.4, Qg=6.0
% INFO    : Gen at bus 215	: Vg=1.04327 -> Vg=1.048
% INFO    : Gen at bus 215	: Pg=2.4, Qg=6.0 -> Pg=2.4, Qg=6.0
% INFO    : Gen at bus 215	: Vg=1.04327 -> Vg=1.048
% INFO    : Gen at bus 215	: Pg=2.4, Qg=6.0 -> Pg=2.4, Qg=6.0
% INFO    : Gen at bus 215	: Vg=1.04327 -> Vg=1.048
% INFO    : Gen at bus 215	: Pg=2.4, Qg=6.0 -> Pg=2.4, Qg=6.0
% INFO    : Gen at bus 215	: Vg=1.04327 -> Vg=1.048
% INFO    : Gen at bus 215	: Pg=2.4, Qg=6.0 -> Pg=2.4, Qg=6.0
% INFO    : Gen at bus 215	: Vg=1.04327 -> Vg=1.048
% INFO    : Gen at bus 215	: Pg=155.0, Qg=80.0 -> Pg=155.0, Qg=80.0
% INFO    : Gen at bus 215	: Vg=1.04327 -> Vg=1.048
% INFO    : Gen at bus 216	: Pg=155.0, Qg=80.0 -> Pg=155.0, Qg=80.0
% INFO    : Gen at bus 216	: Vg=1.04556 -> Vg=1.04905
% INFO    : Gen at bus 218	: Pg=400.0, Qg=61.795 -> Pg=400.0, Qg=-50.0
% INFO    : Gen at bus 218	: Vg=1.05 -> Vg=1.04096
% INFO    : Gen at bus 221	: Pg=400.0, Qg=-9.833 -> Pg=400.0, Qg=35.951
% INFO    : Gen at bus 221	: Vg=1.05 -> Vg=1.05
% INFO    : Gen at bus 222	: Pg=50.0, Qg=-6.797 -> Pg=45.433, Qg=-6.048
% INFO    : Gen at bus 222	: Vg=1.05 -> Vg=1.05
% INFO    : Gen at bus 222	: Pg=50.0, Qg=-6.797 -> Pg=45.433, Qg=-6.048
% INFO    : Gen at bus 222	: Vg=1.05 -> Vg=1.05
% INFO    : Gen at bus 222	: Pg=50.0, Qg=-6.797 -> Pg=45.433, Qg=-6.048
% INFO    : Gen at bus 222	: Vg=1.05 -> Vg=1.05
% INFO    : Gen at bus 222	: Pg=50.0, Qg=-6.797 -> Pg=45.433, Qg=-6.048
% INFO    : Gen at bus 222	: Vg=1.05 -> Vg=1.05
% INFO    : Gen at bus 222	: Pg=50.0, Qg=-6.797 -> Pg=45.433, Qg=-6.048
% INFO    : Gen at bus 222	: Vg=1.05 -> Vg=1.05
% INFO    : Gen at bus 222	: Pg=50.0, Qg=-6.797 -> Pg=45.433, Qg=-6.048
% INFO    : Gen at bus 222	: Vg=1.05 -> Vg=1.05
% INFO    : Gen at bus 223	: Pg=155.0, Qg=0.031 -> Pg=146.724, Qg=-16.229
% INFO    : Gen at bus 223	: Vg=1.05 -> Vg=1.05
% INFO    : Gen at bus 223	: Pg=155.0, Qg=0.031 -> Pg=146.724, Qg=-16.229
% INFO    : Gen at bus 223	: Vg=1.05 -> Vg=1.05
% INFO    : Gen at bus 223	: Pg=350.0, Qg=36.398 -> Pg=305.081, Qg=12.73
% INFO    : Gen at bus 223	: Vg=1.05 -> Vg=1.05
% INFO    : Gen at bus 301	: Pg=16.0, Qg=4.902 -> Pg=20.0, Qg=5.237
% INFO    : Gen at bus 301	: Vg=1.0486 -> Vg=1.03954
% INFO    : Gen at bus 301	: Pg=16.0, Qg=4.902 -> Pg=20.0, Qg=5.237
% INFO    : Gen at bus 301	: Vg=1.0486 -> Vg=1.03954
% INFO    : Gen at bus 301	: Pg=76.0, Qg=-0.426 -> Pg=76.0, Qg=9.249
% INFO    : Gen at bus 301	: Vg=1.0486 -> Vg=1.03954
% INFO    : Gen at bus 301	: Pg=76.0, Qg=-0.426 -> Pg=76.0, Qg=9.249
% INFO    : Gen at bus 301	: Vg=1.0486 -> Vg=1.03954
% INFO    : Gen at bus 302	: Pg=16.0, Qg=4.833 -> Pg=18.068, Qg=2.051
% INFO    : Gen at bus 302	: Vg=1.04864 -> Vg=1.03522
% INFO    : Gen at bus 302	: Pg=16.0, Qg=4.833 -> Pg=18.068, Qg=2.051
% INFO    : Gen at bus 302	: Vg=1.04864 -> Vg=1.03522
% INFO    : Gen at bus 302	: Pg=76.0, Qg=-2.394 -> Pg=76.0, Qg=-22.13
% INFO    : Gen at bus 302	: Vg=1.04864 -> Vg=1.03522
% INFO    : Gen at bus 302	: Pg=76.0, Qg=-2.394 -> Pg=76.0, Qg=-22.13
% INFO    : Gen at bus 302	: Vg=1.04864 -> Vg=1.03522
% INFO    : Gen at bus 307	: Pg=70.297, Qg=16.714 -> Pg=99.965, Qg=10.365
% INFO    : Gen at bus 307	: Vg=1.03804 -> Vg=1.03186
% INFO    : Gen at bus 307	: Pg=70.297, Qg=16.714 -> Pg=99.965, Qg=10.365
% INFO    : Gen at bus 307	: Vg=1.03804 -> Vg=1.03186
% INFO    : Gen at bus 307	: Pg=70.297, Qg=16.714 -> Pg=99.965, Qg=10.365
% INFO    : Gen at bus 307	: Vg=1.03804 -> Vg=1.03186
% INFO    : Gen at bus 313	: Pg=76.947, Qg=37.941 -> Pg=181.142, Qg=33.039
% INFO    : Gen at bus 313	: Vg=1.03802 -> Vg=1.05
% INFO    : Gen at bus 313	: Pg=76.947, Qg=37.941 -> Pg=181.142, Qg=33.039
% INFO    : Gen at bus 313	: Vg=1.03802 -> Vg=1.05
% INFO    : Gen at bus 313	: Pg=76.947, Qg=37.941 -> Pg=181.142, Qg=33.039
% INFO    : Gen at bus 313	: Vg=1.03802 -> Vg=1.05
% INFO    : Gen at bus 314	: Pg=0.0, Qg=117.87 -> Pg=0.0, Qg=103.547
% INFO    : Gen at bus 314	: Vg=1.04631 -> Vg=1.05
% INFO    : Gen at bus 315	: Pg=2.4, Qg=6.0 -> Pg=2.4, Qg=6.0
% INFO    : Gen at bus 315	: Vg=1.043 -> Vg=1.04407
% INFO    : Gen at bus 315	: Pg=2.4, Qg=6.0 -> Pg=2.4, Qg=6.0
% INFO    : Gen at bus 315	: Vg=1.043 -> Vg=1.04407
% INFO    : Gen at bus 315	: Pg=2.4, Qg=6.0 -> Pg=2.4, Qg=6.0
% INFO    : Gen at bus 315	: Vg=1.043 -> Vg=1.04407
% INFO    : Gen at bus 315	: Pg=2.4, Qg=6.0 -> Pg=2.4, Qg=6.0
% INFO    : Gen at bus 315	: Vg=1.043 -> Vg=1.04407
% INFO    : Gen at bus 315	: Pg=2.4, Qg=6.0 -> Pg=2.4, Qg=6.0
% INFO    : Gen at bus 315	: Vg=1.043 -> Vg=1.04407
% INFO    : Gen at bus 315	: Pg=155.0, Qg=80.0 -> Pg=54.3, Qg=80.0
% INFO    : Gen at bus 315	: Vg=1.043 -> Vg=1.04407
% INFO    : Gen at bus 316	: Pg=155.0, Qg=80.0 -> Pg=54.3, Qg=80.0
% INFO    : Gen at bus 316	: Vg=1.04558 -> Vg=1.04693
% INFO    : Gen at bus 318	: Pg=400.0, Qg=57.471 -> Pg=400.0, Qg=57.776
% INFO    : Gen at bus 318	: Vg=1.05 -> Vg=1.05
% INFO    : Gen at bus 321	: Pg=400.0, Qg=-13.198 -> Pg=265.553, Qg=-2.009
% INFO    : Gen at bus 321	: Vg=1.05 -> Vg=1.05
% INFO    : Gen at bus 322	: Pg=50.0, Qg=-6.683 -> Pg=49.852, Qg=-6.75
% INFO    : Gen at bus 322	: Vg=1.05 -> Vg=1.05
% INFO    : Gen at bus 322	: Pg=50.0, Qg=-6.683 -> Pg=49.852, Qg=-6.75
% INFO    : Gen at bus 322	: Vg=1.05 -> Vg=1.05
% INFO    : Gen at bus 322	: Pg=50.0, Qg=-6.683 -> Pg=49.852, Qg=-6.75
% INFO    : Gen at bus 322	: Vg=1.05 -> Vg=1.05
% INFO    : Gen at bus 322	: Pg=50.0, Qg=-6.683 -> Pg=49.852, Qg=-6.75
% INFO    : Gen at bus 322	: Vg=1.05 -> Vg=1.05
% INFO    : Gen at bus 322	: Pg=50.0, Qg=-6.683 -> Pg=49.852, Qg=-6.75
% INFO    : Gen at bus 322	: Vg=1.05 -> Vg=1.05
% INFO    : Gen at bus 322	: Pg=50.0, Qg=-6.683 -> Pg=49.852, Qg=-6.75
% INFO    : Gen at bus 322	: Vg=1.05 -> Vg=1.05
% INFO    : Gen at bus 323	: Pg=155.0, Qg=1.047 -> Pg=81.877, Qg=-5.526
% INFO    : Gen at bus 323	: Vg=1.05 -> Vg=1.05
% INFO    : Gen at bus 323	: Pg=155.0, Qg=1.047 -> Pg=81.877, Qg=-5.526
% INFO    : Gen at bus 323	: Vg=1.05 -> Vg=1.05
% INFO    : Gen at bus 323	: Pg=350.0, Qg=38.057 -> Pg=194.569, Qg=27.715
% INFO    : Gen at bus 323	: Vg=1.05 -> Vg=1.05
% INFO    : 
% INFO    : === Writing Matpower Case File Notes ===
